Version 4.1
SHEET 1 880 680
WIRE 80 80 80 64
WIRE 144 80 80 80
WIRE 256 80 224 80
WIRE 320 80 288 80
WIRE 464 80 464 64
WIRE 464 80 400 80
WIRE 480 80 464 80
WIRE 80 96 80 80
WIRE 464 96 464 80
WIRE 256 144 256 80
WIRE 320 144 256 144
WIRE 176 160 144 160
WIRE 288 160 288 80
WIRE 288 160 176 160
WIRE 320 160 320 144
WIRE 400 160 320 160
WIRE 176 176 176 160
FLAG 80 448 0
FLAG 80 224 0
FLAG 464 224 0
FLAG 80 368 Vdd
FLAG 80 -16 Vdd
FLAG 464 -16 Vdd
FLAG 224 448 0
FLAG 224 368 Vin
FLAG 176 256 Vin
FLAG 480 80 Vout
SYMBOL lib\\cktsym\\npn 464 160 R0
SYMATTR Value 2N3904
SYMATTR InstName Q2
SYMBOL lib\\cktsym\\npn 80 160 M0
SYMATTR Value 2N3904
SYMATTR InstName Q1
SYMBOL res 64 -32 R0
SYMATTR InstName R1
SYMATTR Value {R1}
SYMBOL res 448 -32 R0
SYMATTR InstName R2
SYMATTR Value {R1}
SYMBOL res 416 64 R90
WINDOW 0 0 56 VBottom 2
WINDOW 3 32 56 VTop 2
SYMATTR InstName R4
SYMATTR Value {R2}
SYMBOL res 240 64 R90
WINDOW 0 0 56 VBottom 2
WINDOW 3 32 56 VTop 2
SYMATTR InstName R3
SYMATTR Value {R2}
SYMBOL voltage 80 352 R0
SYMATTR InstName Vdd
SYMATTR Value 5
SYMBOL voltage 224 352 R0
WINDOW 123 0 0 Left 0
WINDOW 39 0 0 Left 0
SYMATTR InstName Vin
SYMATTR Value SINE(2.5 2.5 10 0 0 0)
SYMBOL res 160 160 R0
SYMATTR InstName R5
SYMATTR Value {Rin}
TEXT 64 536 Left 2 !.tran 1 startup
TEXT 64 560 Left 2 !.param R1=6k R2=10k Rin=2k
TEXT 64 584 Left 2 !.step param R1 1k 10k 1k
